
 OpenBabel04192313323D

 26 28  0  0  1  0  0  0  0  0999 V2000
  -15.4027  -19.2256  -25.9240 C   0  0  0  0  0  0  0  0  0  0  0  0
  -14.6892  -19.7085  -27.0431 C   0  0  0  0  0  0  0  0  0  0  0  0
  -15.8773  -20.1670  -24.9825 C   0  0  0  0  0  0  0  0  0  0  0  0
  -14.4634  -21.0792  -27.2135 C   0  0  0  0  0  0  0  0  0  0  0  0
  -15.6470  -21.5325  -25.1586 C   0  0  0  0  0  0  0  0  0  0  0  0
  -15.0906  -16.9038  -26.6883 N   0  0  0  0  0  0  0  0  0  0  0  0
  -14.9431  -21.9895  -26.2706 C   0  0  0  0  0  0  0  0  0  0  0  0
  -15.2240  -15.5570  -26.5892 C   0  0  0  0  0  0  0  0  0  0  0  0
  -15.9271  -14.9998  -25.5039 C   0  0  0  0  0  0  0  0  0  0  0  0
  -15.4728  -12.7759  -26.3665 C   0  0  0  0  0  0  0  0  0  0  0  0
  -14.7841  -13.3337  -27.4478 N   0  0  0  0  0  0  0  0  0  0  0  0
  -16.0465  -13.6026  -25.3968 C   0  0  0  0  0  0  0  0  0  0  0  0
  -14.6586  -14.7220  -27.5604 C   0  0  0  0  0  0  0  0  0  0  0  0
  -16.4842  -15.8754  -24.5621 C   0  0  0  0  0  0  0  0  0  0  0  0
  -16.3210  -17.2301  -24.7103 N   0  0  0  0  0  0  0  0  0  0  0  0
  -15.6200  -17.7529  -25.7632 C   0  0  0  0  0  0  0  0  0  0  0  0
  -17.1111  -15.4460  -23.6075 O   0  0  0  0  0  0  0  0  0  0  0  0
  -14.3021  -19.0271  -27.7905 H   0  0  0  0  0  0  0  0  0  0  0  0
  -16.4234  -19.8826  -24.0994 H   0  0  0  0  0  0  0  0  0  0  0  0
  -13.5747  -21.6566  -28.6115 Cl  0  0  0  0  0  0  0  0  0  0  0  0
  -16.0167  -22.2375  -24.4251 H   0  0  0  0  0  0  0  0  0  0  0  0
  -16.5767  -13.1515  -24.5670 H   0  0  0  0  0  0  0  0  0  0  0  0
  -16.7515  -17.8358  -23.9820 H   0  0  0  0  0  0  0  0  0  0  0  0
  -14.1205  -15.1449  -28.3999 H   0  0  0  0  0  0  0  0  0  0  0  0
  -15.5636  -11.7012  -26.2789 H   0  0  0  0  0  0  0  0  0  0  0  0
  -14.7707  -23.0504  -26.3961 H   0  0  0  0  0  0  0  0  0  0  0  0
  1  2  2  0  0  0  0
  1  3  1  0  0  0  0
  1 16  1  0  0  0  0
  2  4  1  0  0  0  0
  2 18  1  0  0  0  0
  3  5  2  0  0  0  0
  3 19  1  0  0  0  0
  4  7  2  0  0  0  0
  4 20  1  0  0  0  0
  5  7  1  0  0  0  0
  5 21  1  0  0  0  0
  6  8  1  0  0  0  0
  6 16  2  0  0  0  0
  7 26  1  0  0  0  0
  8  9  2  0  0  0  0
  8 13  1  0  0  0  0
  9 12  1  0  0  0  0
  9 14  1  0  0  0  0
 10 11  1  0  0  0  0
 10 12  2  0  0  0  0
 10 25  1  0  0  0  0
 11 13  2  0  0  0  0
 12 22  1  0  0  0  0
 13 24  1  0  0  0  0
 14 15  1  0  0  0  0
 14 17  2  0  0  0  0
 15 16  1  0  0  0  0
 15 23  1  0  0  0  0
M  END
