GAS.pdb
 OpenBabel05152306313D

 16 16  0  0  0  0  0  0  0  0999 V2000
   49.8190   50.2350   51.1450 C   0  0  0  0  0  0  0  0  0  0  0  0
   49.3790   50.9450   51.8450 H   0  0  0  0  0  0  0  0  0  0  0  0
   50.1890   49.0050   51.6550 C   0  0  0  0  0  0  0  0  0  0  0  0
   50.1090   48.9050   52.7350 H   0  0  0  0  0  0  0  0  0  0  0  0
   50.6090   48.0150   50.7750 C   0  0  0  0  0  0  0  0  0  0  0  0
   50.9490   47.0350   51.1250 H   0  0  0  0  0  0  0  0  0  0  0  0
   50.6390   48.3150   49.4250 C   0  0  0  0  0  0  0  0  0  0  0  0
   51.1090   47.5350   48.8250 H   0  0  0  0  0  0  0  0  0  0  0  0
   50.2090   49.5150   48.8850 C   0  0  0  0  0  0  0  0  0  0  0  0
   50.1290   49.6550   47.8050 H   0  0  0  0  0  0  0  0  0  0  0  0
   49.7090   50.4450   49.7850 C   0  0  0  0  0  0  0  0  0  0  0  0
   49.0790   51.7250   49.2450 C   0  0  0  0  0  0  0  0  0  0  0  0
   48.7790   52.1950   50.1750 H   0  0  0  0  0  0  0  0  0  0  0  0
   48.2490   51.5550   48.5550 H   0  0  0  0  0  0  0  0  0  0  0  0
   50.1890   52.4050   48.6550 O   0  0  0  0  0  0  0  0  0  0  0  0
   50.8590   52.5150   49.3650 H   0  0  0  0  0  0  0  0  0  0  0  0
  1  3  1  0  0  0  0
  1  2  1  0  0  0  0
  3  4  1  0  0  0  0
  5  6  1  0  0  0  0
  5  3  2  0  0  0  0
  7  5  1  0  0  0  0
  8  7  1  0  0  0  0
  9  7  2  0  0  0  0
  9 11  1  0  0  0  0
 10  9  1  0  0  0  0
 11  1  2  0  0  0  0
 12 11  1  0  0  0  0
 12 13  1  0  0  0  0
 14 12  1  0  0  0  0
 15 12  1  0  0  0  0
 15 16  1  0  0  0  0
M  END
